<?xml version="1.0" encoding="UTF-8"?>

<!-- generated on 2023-06-19 13:08:21 by Eclipse SUMO netedit Version 1.17.0
<configuration xmlns:xsi="http://www.w3.org/2001/XMLSchema-instance" xsi:noNamespaceSchemaLocation="http://sumo.dlr.de/xsd/netconvertConfiguration.xsd">

    <input>
        <sumo-net-file value="/Users/finn/Code/ps-safe-rl/nets/simple_intersection/simple_intersection.net.xml"/>
    </input>

    <processing>
        <geometry.min-radius.fix.railways value="false"/>
        <geometry.max-grade.fix value="false"/>
        <offset.disable-normalization value="true"/>
        <lefthand value="0"/>
    </processing>

    <junctions>
        <no-turnarounds value="true"/>
        <junctions.corner-detail value="5"/>
        <junctions.limit-turn-speed value="5.50"/>
        <rectangular-lane-cut value="0"/>
    </junctions>

    <pedestrian>
        <walkingareas value="0"/>
    </pedestrian>

</configuration>
-->

<additional xmlns:xsi="http://www.w3.org/2001/XMLSchema-instance" xsi:noNamespaceSchemaLocation="http://sumo.dlr.de/xsd/additional_file.xsd">
    <!-- Alternating Green and Yellow phases as expected by sumo-rl -->
    <tlLogic id="J1" type="static" programID="0" offset="0">
        <phase duration="27" state="GGr"/>
        <phase duration="3" state="yyr"/>
        <phase duration="27" state="rrG"/>
        <phase duration="3" state="rry"/>
        <phase duration="27" state="GrG"/>
        <phase duration="3" state="yry"/>
    </tlLogic>
</additional>
