<?xml version="1.0" encoding="UTF-8"?>

<!-- generated on 2023-06-17 17:12:54 by Eclipse SUMO netedit Version 1.17.0
<configuration xmlns:xsi="http://www.w3.org/2001/XMLSchema-instance" xsi:noNamespaceSchemaLocation="http://sumo.dlr.de/xsd/netconvertConfiguration.xsd">

    <input>
        <sumocfg-file value="/Users/finn/Code/ps-safe-rl/nets/simple_intersection/simple_intersection.sumocfg"/>
        <route-files value="/Users/finn/Code/ps-safe-rl/nets/simple_intersection/simple_intersection.rou.xml"/>
        <sumo-net-file value="/Users/finn/Code/ps-safe-rl/nets/simple_intersection/simple_intersection.net.xml"/>
    </input>

    <output>
        <output-file value="/Users/finn/Code/ps-safe-rl/nets/simple_intersection/simple_intersection.net.xml"/>
    </output>

    <processing>
        <offset.disable-normalization value="true"/>
    </processing>

    <junctions>
        <no-turnarounds value="true"/>
    </junctions>

    <netedit>
        <new-network value="false"/>
    </netedit>

</configuration>
-->

<net version="1.16" junctionCornerDetail="5" limitTurnSpeed="5.50" xmlns:xsi="http://www.w3.org/2001/XMLSchema-instance" xsi:noNamespaceSchemaLocation="http://sumo.dlr.de/xsd/net_file.xsd">

    <location netOffset="0.00,0.00" convBoundary="-100.00,-100.00,300.00,300.00" origBoundary="-10000000000.00,-10000000000.00,10000000000.00,10000000000.00" projParameter="!"/>

    <edge id=":J1_0" function="internal">
        <lane id=":J1_0_0" index="0" speed="27.78" length="9.03" shape="104.80,92.80 105.15,95.25 106.20,97.00 107.95,98.05 110.40,98.40"/>
    </edge>
    <edge id=":J1_1" function="internal">
        <lane id=":J1_1_0" index="0" speed="27.78" length="11.20" shape="101.60,92.80 101.60,104.00"/>
    </edge>
    <edge id=":J1_2" function="internal">
        <lane id=":J1_2_0" index="0" speed="27.78" length="14.40" shape="96.00,98.40 110.40,98.40"/>
    </edge>

    <edge id="E0" from="J0" to="J1" priority="-1">
        <lane id="E0_0" index="0" speed="27.78" length="196.00" shape="-100.00,98.40 96.00,98.40"/>
    </edge>
    <edge id="E1" from="J1" to="J2" priority="-1">
        <lane id="E1_0" index="0" speed="27.78" length="189.60" shape="110.40,98.40 300.00,98.40"/>
    </edge>
    <edge id="E2" from="J3" to="J1" priority="-1">
        <lane id="E2_0" index="0" speed="27.78" length="192.80" shape="104.80,-100.00 104.80,92.80"/>
        <lane id="E2_1" index="1" speed="27.78" length="192.80" shape="101.60,-100.00 101.60,92.80"/>
    </edge>
    <edge id="E3" from="J1" to="J4" priority="-1">
        <lane id="E3_0" index="0" speed="27.78" length="196.00" shape="101.60,104.00 101.60,300.00"/>
    </edge>

    <!-- Alternating Green and Yellow phases as expected by sumo-rl -->
    <tlLogic id="J1" type="static" programID="0" offset="0">
        <phase duration="27" state="GGr"/>
        <phase duration="3" state="yyr"/>
        <phase duration="27" state="rrG"/>
        <phase duration="3" state="rry"/>
        <phase duration="27" state="GrG"/>
        <phase duration="3" state="yry"/>
    </tlLogic>

    <junction id="J0" type="dead_end" x="-100.00" y="100.00" incLanes="" intLanes="" shape="-100.00,100.00 -100.00,96.80"/>
    <junction id="J1" type="traffic_light" x="100.00" y="100.00" incLanes="E2_0 E2_1 E0_0" intLanes=":J1_0_0 :J1_1_0 :J1_2_0" shape="100.00,104.00 103.20,104.00 104.00,101.78 105.00,101.00 106.40,100.44 108.20,100.11 110.40,100.00 110.40,96.80 108.18,96.36 107.40,95.80 106.84,95.02 106.51,94.02 106.40,92.80 100.00,92.80 99.56,95.02 99.00,95.80 98.22,96.36 97.22,96.69 96.00,96.80 96.00,100.00 98.22,100.44 99.00,101.00 99.56,101.78 99.89,102.78">
        <request index="0" response="000" foes="100" cont="0"/>
        <request index="1" response="000" foes="100" cont="0"/>
        <request index="2" response="011" foes="011" cont="0"/>
    </junction>
    <junction id="J2" type="dead_end" x="300.00" y="100.00" incLanes="E1_0" intLanes="" shape="300.00,96.80 300.00,100.00"/>
    <junction id="J3" type="dead_end" x="100.00" y="-100.00" incLanes="" intLanes="" shape="100.00,-100.00 106.40,-100.00"/>
    <junction id="J4" type="dead_end" x="100.00" y="300.00" incLanes="E3_0" intLanes="" shape="103.20,300.00 100.00,300.00"/>

    <connection from="E0" to="E1" fromLane="0" toLane="0" via=":J1_2_0" tl="J1" linkIndex="2" dir="s" state="o"/>
    <connection from="E2" to="E1" fromLane="0" toLane="0" via=":J1_0_0" tl="J1" linkIndex="0" dir="r" state="O"/>
    <connection from="E2" to="E3" fromLane="1" toLane="0" via=":J1_1_0" tl="J1" linkIndex="1" dir="s" state="O"/>

    <connection from=":J1_0" to="E1" fromLane="0" toLane="0" dir="r" state="M"/>
    <connection from=":J1_1" to="E3" fromLane="0" toLane="0" dir="s" state="M"/>
    <connection from=":J1_2" to="E1" fromLane="0" toLane="0" dir="s" state="M"/>

</net>
