<?xml version="1.0" encoding="UTF-8"?>

<routes xmlns:xsi="http://www.w3.org/2001/XMLSchema-instance"
        xsi:noNamespaceSchemaLocation="http://sumo.dlr.de/xsd/routes_file.xsd">
    <vType id="vt_se" jmIgnoreFoeProb="1" jmIgnoreJunctionFoeProb="1"/>

    <route id="r_se" edges="E2 E1"/>
    <route id="r_sn" edges="E2 E3"/>
    <route id="r_we" edges="E0 E1"/>

    <flow id="we_0" route="r_we" begin="0" end="1000" probability="0.1" departPos="free"/>
    <flow id="sn_0" route="r_sn" begin="0" end="1000" probability="0.1" departPos="free"/>
    <flow id="se_0" route="r_se" begin="0" end="1000" probability="0.1" departPos="free" type="vt_se"/>
    <flow id="we_1" route="r_we" begin="1000" end="2000" probability="0.05" departPos="free"/>
    <flow id="sn_1" route="r_sn" begin="1000" end="2000" probability="0.05" departPos="free"/>
    <flow id="se_1" route="r_se" begin="1000" end="2000" probability="0.05" departPos="free" type="vt_se"/>
    <flow id="we_2" route="r_we" begin="2000" end="3000" probability="0.2" departPos="free"/>
    <flow id="sn_2" route="r_sn" begin="2000" end="3000" probability="0.2" departPos="free"/>
    <flow id="se_2" route="r_se" begin="2000" end="3000" probability="0.2" departPos="free" type="vt_se"/>
    <flow id="we_4" route="r_we" begin="4000" end="5000" probability="0.1" departPos="free"/>
    <flow id="sn_4" route="r_sn" begin="4000" end="5000" probability="0.1" departPos="free"/>
    <flow id="se_4" route="r_se" begin="4000" end="5000" probability="0.2" departPos="free" type="vt_se"/>
    <flow id="we_5" route="r_we" begin="5000" end="6000" probability="0.1" departPos="free"/>
    <flow id="sn_5" route="r_sn" begin="5000" end="6000" probability="0.2" departPos="free"/>
    <flow id="se_5" route="r_se" begin="5000" end="6000" probability="0.1" departPos="free" type="vt_se"/>
    <flow id="we_6" route="r_we" begin="6000" end="7000" probability="0.2" departPos="free"/>
    <flow id="sn_6" route="r_sn" begin="6000" end="7000" probability="0.1" departPos="free"/>
    <flow id="se_6" route="r_se" begin="6000" end="7000" probability="0.1" departPos="free" type="vt_se"/>
    <flow id="we_7" route="r_we" begin="7000" end="8000" probability="0.1" departPos="free"/>
    <flow id="sn_7" route="r_sn" begin="7000" end="8000" probability="0.1" departPos="free"/>
    <flow id="se_7" route="r_se" begin="7000" end="8000" probability="0.05" departPos="free" type="vt_se"/>
    <flow id="we_8" route="r_we" begin="8000" end="9000" probability="0.1" departPos="free"/>
    <flow id="sn_8" route="r_sn" begin="8000" end="9000" probability="0.05" departPos="free"/>
    <flow id="se_8" route="r_se" begin="8000" end="9000" probability="0.1" departPos="free" type="vt_se"/>
    <flow id="we_9" route="r_we" begin="9000" end="10000" probability="0.05" departPos="free"/>
    <flow id="sn_9" route="r_sn" begin="9000" end="10000" probability="0.1" departPos="free"/>
    <flow id="se_9" route="r_se" begin="9000" end="10000" probability="0.1" departPos="free" type="vt_se"/>
</routes>
